 # Fcc Al oriented X=[-110] Y=[111] Z=[11-2].
 CRYSTAL
 PRIMVEC
      2.86095404        0.00000000        0.00000000
      0.00000000       56.06302054        0.00000000
      0.00000000        0.00000000        4.95531775
 CONVVEC
      2.86095404        0.00000000        0.00000000
      0.00000000       56.06302054        0.00000000
      0.00000000        0.00000000        4.95531775
 PRIMCOORD
       48 1
13        0.00000000        0.00000000        0.00000000
13        0.00000000        4.67191838        3.30354517
13        0.00000000        2.33595919        1.65177258
13        1.43047702       -0.00000000        2.47765887
13        1.43047702        2.33595919        4.12943146
13        1.43047702        4.67191838        0.82588629
13        0.00000000        7.00787757        0.00000000
13        0.00000000       11.67979595        3.30354517
13        0.00000000        9.34383676        1.65177258
13        1.43047702        7.00787757        2.47765887
13        1.43047702        9.34383676        4.12943146
13        1.43047702       11.67979595        0.82588629
13        0.00000000       14.01575513        0.00000000
13        0.00000000       18.68767351        3.30354517
13        0.00000000       16.35171432        1.65177258
13        1.43047702       14.01575513        2.47765887
13        1.43047702       16.35171432        4.12943146
13        1.43047702       18.68767351        0.82588629
13        0.00000000       21.02363270        0.00000000
13        0.00000000       25.69555108        3.30354517
13        0.00000000       23.35959189        1.65177258
13        1.43047702       21.02363270        2.47765887
13        1.43047702       23.35959189        4.12943146
13        1.43047702       25.69555108        0.82588629
13        0.00000000       28.03151027        0.00000000
13        0.00000000       32.70342865        3.30354517
13        0.00000000       30.36746946        1.65177258
13        1.43047702       28.03151027        2.47765887
13        1.43047702       30.36746946        4.12943146
13        1.43047702       32.70342865        0.82588629
13        0.00000000       35.03938784        0.00000000
13        0.00000000       39.71130622        3.30354517
13        0.00000000       37.37534703        1.65177258
13        1.43047702       35.03938784        2.47765887
13        1.43047702       37.37534703        4.12943146
13        1.43047702       39.71130622        0.82588629
13        0.00000000       42.04726540        0.00000000
13        0.00000000       46.71918378        3.30354517
13        0.00000000       44.38322459        1.65177258
13        1.43047702       42.04726540        2.47765887
13        1.43047702       44.38322459        4.12943146
13        1.43047702       46.71918378        0.82588629
13        0.00000000       49.05514297        0.00000000
13        0.00000000       53.72706135        3.30354517
13        0.00000000       51.39110216        1.65177258
13        1.43047702       49.05514297        2.47765887
13        1.43047702       51.39110216        4.12943146
13        1.43047702       53.72706135        0.82588629
